tests/data/power_flow/floating-ground-no-error/linear/zigzag_n-wye/input.json
{
  "version": "1.0",
  "type": "input",
  "is_batch": false,
  "attributes": {},
  "data": {
    "node": [
      {"id": 1, "u_rated": 10000},
      {"id": 2, "u_rated": 100}
    ],
    "transformer": [
      {"id": 4, "from_node": 1, "to_node": 2, "from_status": 1, "to_status": 1, "u1": 10000, "u2": 100, "sn": 100000, "uk": 0.10000000000000001, "pk": 1000, "i0": 0.001, "p0": 10, "winding_from": 4, "winding_to": 0, "clock": 1, "tap_side": 0, "tap_pos": 0, "tap_min": -10, "tap_max": 10, "tap_nom": 0, "tap_size": 100, "r_grounding_from": 0, "x_grounding_from": 0, "r_grounding_to": 0, "x_grounding_to": 0}
    ],
    "source": [
      {"id": 3, "node": 1, "status": 1, "u_ref": 1, "sk": 1000000000000000, "rx_ratio": 1, "z01_ratio": 2}
    ],
    "asym_load": [
      {"id": 21, "node": 2, "status": 0, "type": 0, "p_specified": [1000, 1000, 2000], "q_specified": [1000, 1000, 2000]}
    ]
  }
}